&HEAD CHID='30Kwmethane_with_probe'/
&TIME T_END=20.0/
&DUMP RENDER_FILE='30Kwmethane.ge1', COLUMN_DUMP_LIMIT=.TRUE., DT_RESTART=300.0/

&MESH ID='Mesh02', IJK=50,50,18, XB=-0.25,0.25,-0.25,0.25,0.0,0.18/
&MESH ID='Mesh05', IJK=50,50,8, XB=-0.25,0.25,-0.25,0.25,0.22,0.32/
&MESH ID='Mesh06', IJK=25,50,4, XB=-0.25,0.0,-0.25,0.25,0.18,0.22/
&MESH ID='Mesh07', IJK=25,24,4, XB=0.0,0.25,-0.25,-0.01,0.18,0.22/
&MESH ID='Mesh08', IJK=25,24,4, XB=0.0,0.25,0.01,0.25,0.18,0.22/
&MESH ID='Mesh09', IJK=100,8,16, XB=0.0,0.25,-0.01,0.01,0.18,0.22/
&MESH ID='Mesh10', IJK=25,25,20, XB=-0.25,0.25,-0.25,0.25,0.32,0.72/


&REAC ID='METHANE',
      FYI='AFT NIST Multi-Floor FDS5 Validation',
      FUEL='REAC_FUEL',
      FORMULA='C1H4'/

&DEVC ID='GAS_temperature_-3cm', QUANTITY='TEMPERATURE', XYZ=0.0,0.0,0.17/
&DEVC ID='GAS_temperature_-2cm', QUANTITY='TEMPERATURE', XYZ=0.0,0.0,0.18/
&DEVC ID='GAS_temperature_-1cm', QUANTITY='TEMPERATURE', XYZ=0.0,0.0,0.19/
&DEVC ID='GAS_temperature_0cm', QUANTITY='TEMPERATURE', XYZ=0.0,0.0,0.2/
&DEVC ID='GAS_temperature_1cm', QUANTITY='TEMPERATURE', XYZ=0.0,0.0,0.21/
&DEVC ID='GAS_temperature_2cm', QUANTITY='TEMPERATURE', XYZ=0.0,0.0,0.22/
&DEVC ID='GAS_temperature_3cm', QUANTITY='TEMPERATURE', XYZ=0.0,0.0,0.23/
&DEVC ID='GAS_temperature_4cm', QUANTITY='TEMPERATURE', XYZ=0.0,0.0,0.24/
&DEVC ID='GAS_temperature_5cm', QUANTITY='TEMPERATURE', XYZ=0.0,0.0,0.25/
&DEVC ID='GAS_temperature_-3cm_closer', QUANTITY='TEMPERATURE', XYZ=0.0025,0.0,0.17/
&DEVC ID='GAS_temperature_-2cm_closer', QUANTITY='TEMPERATURE', XYZ=0.0025,0.0,0.18/
&DEVC ID='GAS_temperature_-1cm_closer', QUANTITY='TEMPERATURE', XYZ=0.0025,0.0,0.19/
&DEVC ID='GAS_temperature_0cm_closer', QUANTITY='TEMPERATURE', XYZ=0.0025,0.0,0.2/
&DEVC ID='GAS_temperature_1cm_closer', QUANTITY='TEMPERATURE', XYZ=0.0025,0.0,0.21/
&DEVC ID='GAS_temperature_2cm_closer', QUANTITY='TEMPERATURE', XYZ=0.0025,0.0,0.22/
&DEVC ID='GAS_temperature_3cm_closer', QUANTITY='TEMPERATURE', XYZ=0.0025,0.0,0.23/
&DEVC ID='GAS_temperature_4cm_closer', QUANTITY='TEMPERATURE', XYZ=0.0025,0.0,0.24/
&DEVC ID='GAS_temperature_5cm_closer', QUANTITY='TEMPERATURE', XYZ=0.0025,0.0,0.25/

&SURF ID='burner',
      COLOR='RED',
      HRRPUA=266.904/
&SURF ID='fixed_Temp',
      RGB=255.0,102.0,0.0,
      TMP_FRONT=90.0/
&SURF ID='Exhaust',
      RGB=26.0,128.0,26.0,
      VOLUME_FLOW=1.3E-5/

&OBST ID='Obstruction', XB=0.18,0.19,0.0,0.01,0.0,0.1, SURF_IDS='burner','INERT','INERT'/ 
&OBST ID='Obstruction', XB=0.18,0.19,0.01,0.02,0.0,0.1, SURF_IDS='burner','INERT','INERT'/ 
&OBST ID='Obstruction', XB=0.18,0.19,0.02,0.03,0.0,0.1, SURF_IDS='burner','INERT','INERT'/ 
&OBST ID='Obstruction', XB=0.18,0.19,0.03,0.04,0.0,0.1, SURF_IDS='burner','INERT','INERT'/ 
&OBST ID='Obstruction', XB=0.18,0.19,0.04,0.05,0.0,0.1, SURF_IDS='burner','INERT','INERT'/ 
&OBST ID='Obstruction', XB=0.18,0.19,0.05,0.06,0.0,0.1, SURF_IDS='burner','INERT','INERT'/ 
&OBST ID='Obstruction', XB=0.18,0.19,0.06,0.07,0.0,0.1, SURF_IDS='burner','INERT','INERT'/ 
&OBST ID='Obstruction', XB=0.18,0.19,0.07,0.08,0.0,0.1, SURF_IDS='burner','INERT','INERT'/ 
&OBST ID='Obstruction', XB=0.18,0.19,0.08,0.09,0.0,0.1, SURF_IDS='burner','INERT','INERT'/ 
&OBST ID='Obstruction', XB=0.18,0.19,-0.01,0.0,0.0,0.1, SURF_IDS='burner','INERT','INERT'/ 
&OBST ID='Obstruction', XB=0.18,0.19,-0.02,-0.01,0.0,0.1, SURF_IDS='burner','INERT','INERT'/ 
&OBST ID='Obstruction', XB=0.18,0.19,-0.03,-0.02,0.0,0.1, SURF_IDS='burner','INERT','INERT'/ 
&OBST ID='Obstruction', XB=0.18,0.19,-0.04,-0.03,0.0,0.1, SURF_IDS='burner','INERT','INERT'/ 
&OBST ID='Obstruction', XB=0.18,0.19,-0.05,-0.04,0.0,0.1, SURF_IDS='burner','INERT','INERT'/ 
&OBST ID='Obstruction', XB=0.18,0.19,-0.06,-0.05,0.0,0.1, SURF_IDS='burner','INERT','INERT'/ 
&OBST ID='Obstruction', XB=0.18,0.19,-0.07,-0.06,0.0,0.1, SURF_IDS='burner','INERT','INERT'/ 
&OBST ID='Obstruction', XB=0.18,0.19,-0.08,-0.07,0.0,0.1, SURF_IDS='burner','INERT','INERT'/ 
&OBST ID='Obstruction', XB=0.18,0.19,-0.09,-0.08,0.0,0.1, SURF_IDS='burner','INERT','INERT'/ 
&OBST ID='Obstruction', XB=0.17,0.18,0.08,0.09,0.0,0.1, SURF_IDS='burner','INERT','INERT'/ 
&OBST ID='Obstruction', XB=0.17,0.18,0.07,0.08,0.0,0.1, SURF_IDS='burner','INERT','INERT'/ 
&OBST ID='Obstruction', XB=0.17,0.18,0.06,0.07,0.0,0.1, SURF_IDS='burner','INERT','INERT'/ 
&OBST ID='Obstruction', XB=0.17,0.18,0.05,0.06,0.0,0.1, SURF_IDS='burner','INERT','INERT'/ 
&OBST ID='Obstruction', XB=0.17,0.18,0.04,0.05,0.0,0.1, SURF_IDS='burner','INERT','INERT'/ 
&OBST ID='Obstruction', XB=0.17,0.18,0.03,0.04,0.0,0.1, SURF_IDS='burner','INERT','INERT'/ 
&OBST ID='Obstruction', XB=0.17,0.18,0.02,0.03,0.0,0.1, SURF_IDS='burner','INERT','INERT'/ 
&OBST ID='Obstruction', XB=0.17,0.18,-0.06,-0.05,0.0,0.1, SURF_IDS='burner','INERT','INERT'/ 
&OBST ID='Obstruction', XB=0.17,0.18,-0.07,-0.06,0.0,0.1, SURF_IDS='burner','INERT','INERT'/ 
&OBST ID='Obstruction', XB=0.17,0.18,-0.08,-0.07,0.0,0.1, SURF_IDS='burner','INERT','INERT'/ 
&OBST ID='Obstruction', XB=0.17,0.18,-0.09,-0.08,0.0,0.1, SURF_IDS='burner','INERT','INERT'/ 
&OBST ID='Obstruction', XB=0.17,0.18,-0.05,-0.04,0.0,0.1, SURF_IDS='burner','INERT','INERT'/ 
&OBST ID='Obstruction', XB=0.17,0.18,-0.04,-0.03,0.0,0.1, SURF_IDS='burner','INERT','INERT'/ 
&OBST ID='Obstruction', XB=0.17,0.18,-0.03,-0.02,0.0,0.1, SURF_IDS='burner','INERT','INERT'/ 
&OBST ID='Obstruction', XB=0.17,0.18,-0.02,-0.01,0.0,0.1, SURF_IDS='burner','INERT','INERT'/ 
&OBST ID='Obstruction', XB=0.17,0.18,-0.01,0.0,0.0,0.1, SURF_IDS='burner','INERT','INERT'/ 
&OBST ID='Obstruction', XB=0.17,0.18,0.0,0.01,0.0,0.1, SURF_IDS='burner','INERT','INERT'/ 
&OBST ID='Obstruction', XB=0.17,0.18,0.01,0.02,0.0,0.1, SURF_IDS='burner','INERT','INERT'/ 
&OBST ID='Obstruction', XB=0.17,0.18,0.09,0.1,0.0,0.1, SURF_IDS='burner','INERT','INERT'/ 
&OBST ID='Obstruction', XB=0.17,0.18,-0.1,-0.09,0.0,0.1, SURF_IDS='burner','INERT','INERT'/ 
&OBST ID='Obstruction', XB=0.16,0.17,-0.09,-0.08,0.0,0.1, SURF_IDS='burner','INERT','INERT'/ 
&OBST ID='Obstruction', XB=0.16,0.17,-0.08,-0.07,0.0,0.1, SURF_IDS='burner','INERT','INERT'/ 
&OBST ID='Obstruction', XB=0.16,0.17,-0.07,-0.06,0.0,0.1, SURF_IDS='burner','INERT','INERT'/ 
&OBST ID='Obstruction', XB=0.16,0.17,-0.06,-0.05,0.0,0.1, SURF_IDS='burner','INERT','INERT'/ 
&OBST ID='Obstruction', XB=0.16,0.17,0.02,0.03,0.0,0.1, SURF_IDS='burner','INERT','INERT'/ 
&OBST ID='Obstruction', XB=0.16,0.17,-0.05,-0.04,0.0,0.1, SURF_IDS='burner','INERT','INERT'/ 
&OBST ID='Obstruction', XB=0.16,0.17,-0.04,-0.03,0.0,0.1, SURF_IDS='burner','INERT','INERT'/ 
&OBST ID='Obstruction', XB=0.16,0.17,-0.03,-0.02,0.0,0.1, SURF_IDS='burner','INERT','INERT'/ 
&OBST ID='Obstruction', XB=0.16,0.17,-0.02,-0.01,0.0,0.1, SURF_IDS='burner','INERT','INERT'/ 
&OBST ID='Obstruction', XB=0.16,0.17,-0.01,0.0,0.0,0.1, SURF_IDS='burner','INERT','INERT'/ 
&OBST ID='Obstruction', XB=0.16,0.17,0.0,0.01,0.0,0.1, SURF_IDS='burner','INERT','INERT'/ 
&OBST ID='Obstruction', XB=0.16,0.17,0.01,0.02,0.0,0.1, SURF_IDS='burner','INERT','INERT'/ 
&OBST ID='Obstruction', XB=0.16,0.17,0.08,0.09,0.0,0.1, SURF_IDS='burner','INERT','INERT'/ 
&OBST ID='Obstruction', XB=0.16,0.17,0.07,0.08,0.0,0.1, SURF_IDS='burner','INERT','INERT'/ 
&OBST ID='Obstruction', XB=0.16,0.17,0.06,0.07,0.0,0.1, SURF_IDS='burner','INERT','INERT'/ 
&OBST ID='Obstruction', XB=0.16,0.17,0.05,0.06,0.0,0.1, SURF_IDS='burner','INERT','INERT'/ 
&OBST ID='Obstruction', XB=0.16,0.17,0.04,0.05,0.0,0.1, SURF_IDS='burner','INERT','INERT'/ 
&OBST ID='Obstruction', XB=0.16,0.17,0.03,0.04,0.0,0.1, SURF_IDS='burner','INERT','INERT'/ 
&OBST ID='Obstruction', XB=0.15,0.16,0.08,0.09,0.0,0.1, SURF_IDS='burner','INERT','INERT'/ 
&OBST ID='Obstruction', XB=0.15,0.16,0.07,0.08,0.0,0.1, SURF_IDS='burner','INERT','INERT'/ 
&OBST ID='Obstruction', XB=0.15,0.16,0.06,0.07,0.0,0.1, SURF_IDS='burner','INERT','INERT'/ 
&OBST ID='Obstruction', XB=0.15,0.16,0.05,0.06,0.0,0.1, SURF_IDS='burner','INERT','INERT'/ 
&OBST ID='Obstruction', XB=0.15,0.16,0.04,0.05,0.0,0.1, SURF_IDS='burner','INERT','INERT'/ 
&OBST ID='Obstruction', XB=0.15,0.16,-0.09,-0.08,0.0,0.1, SURF_IDS='burner','INERT','INERT'/ 
&OBST ID='Obstruction', XB=0.15,0.16,-0.08,-0.07,0.0,0.1, SURF_IDS='burner','INERT','INERT'/ 
&OBST ID='Obstruction', XB=0.15,0.16,-0.07,-0.06,0.0,0.1, SURF_IDS='burner','INERT','INERT'/ 
&OBST ID='Obstruction', XB=0.15,0.16,-0.06,-0.05,0.0,0.1, SURF_IDS='burner','INERT','INERT'/ 
&OBST ID='Obstruction', XB=0.15,0.16,-0.05,-0.04,0.0,0.1, SURF_IDS='burner','INERT','INERT'/ 
&OBST ID='Obstruction', XB=0.15,0.16,-0.04,-0.03,0.0,0.1, SURF_IDS='burner','INERT','INERT'/ 
&OBST ID='Obstruction', XB=0.15,0.16,-0.03,-0.02,0.0,0.1, SURF_IDS='burner','INERT','INERT'/ 
&OBST ID='Obstruction', XB=0.15,0.16,-0.02,-0.01,0.0,0.1, SURF_IDS='burner','INERT','INERT'/ 
&OBST ID='Obstruction', XB=0.15,0.16,-0.01,0.0,0.0,0.1, SURF_IDS='burner','INERT','INERT'/ 
&OBST ID='Obstruction', XB=0.15,0.16,0.0,0.01,0.0,0.1, SURF_IDS='burner','INERT','INERT'/ 
&OBST ID='Obstruction', XB=0.15,0.16,-0.1,-0.09,0.0,0.1, SURF_IDS='burner','INERT','INERT'/ 
&OBST ID='Obstruction', XB=0.15,0.16,0.09,0.1,0.0,0.1, SURF_IDS='burner','INERT','INERT'/ 
&OBST ID='Obstruction', XB=0.15,0.16,0.03,0.04,0.0,0.1, SURF_IDS='burner','INERT','INERT'/ 
&OBST ID='Obstruction', XB=0.15,0.16,0.02,0.03,0.0,0.1, SURF_IDS='burner','INERT','INERT'/ 
&OBST ID='Obstruction', XB=0.15,0.16,0.01,0.02,0.0,0.1, SURF_IDS='burner','INERT','INERT'/ 
&OBST ID='Obstruction', XB=0.16,0.17,0.09,0.1,0.0,0.1, SURF_IDS='burner','INERT','INERT'/ 
&OBST ID='Obstruction', XB=0.16,0.17,0.1,0.11,0.0,0.1, SURF_IDS='burner','INERT','INERT'/ 
&OBST ID='Obstruction', XB=0.16,0.17,-0.1,-0.09,0.0,0.1, SURF_IDS='burner','INERT','INERT'/ 
&OBST ID='Obstruction', XB=0.16,0.17,-0.11,-0.1,0.0,0.1, SURF_IDS='burner','INERT','INERT'/ 
&OBST ID='Obstruction', XB=0.15,0.16,0.1,0.11,0.0,0.1, SURF_IDS='burner','INERT','INERT'/ 
&OBST ID='Obstruction', XB=0.15,0.16,0.11,0.12,0.0,0.1, SURF_IDS='burner','INERT','INERT'/ 
&OBST ID='Obstruction', XB=0.15,0.16,-0.11,-0.1,0.0,0.1, SURF_IDS='burner','INERT','INERT'/ 
&OBST ID='Obstruction', XB=0.15,0.16,-0.12,-0.11,0.0,0.1, SURF_IDS='burner','INERT','INERT'/ 
&OBST ID='Obstruction', XB=0.14,0.15,-0.09,-0.08,0.0,0.1, SURF_IDS='burner','INERT','INERT'/ 
&OBST ID='Obstruction', XB=0.14,0.15,-0.08,-0.07,0.0,0.1, SURF_IDS='burner','INERT','INERT'/ 
&OBST ID='Obstruction', XB=0.14,0.15,-0.07,-0.06,0.0,0.1, SURF_IDS='burner','INERT','INERT'/ 
&OBST ID='Obstruction', XB=0.14,0.15,-0.1,-0.09,0.0,0.1, SURF_IDS='burner','INERT','INERT'/ 
&OBST ID='Obstruction', XB=0.14,0.15,-0.06,-0.05,0.0,0.1, SURF_IDS='burner','INERT','INERT'/ 
&OBST ID='Obstruction', XB=0.14,0.15,-0.05,-0.04,0.0,0.1, SURF_IDS='burner','INERT','INERT'/ 
&OBST ID='Obstruction', XB=0.14,0.15,-0.04,-0.03,0.0,0.1, SURF_IDS='burner','INERT','INERT'/ 
&OBST ID='Obstruction', XB=0.14,0.15,-0.03,-0.02,0.0,0.1, SURF_IDS='burner','INERT','INERT'/ 
&OBST ID='Obstruction', XB=0.14,0.15,-0.02,-0.01,0.0,0.1, SURF_IDS='burner','INERT','INERT'/ 
&OBST ID='Obstruction', XB=0.14,0.15,-0.01,0.0,0.0,0.1, SURF_IDS='burner','INERT','INERT'/ 
&OBST ID='Obstruction', XB=0.14,0.15,0.0,0.01,0.0,0.1, SURF_IDS='burner','INERT','INERT'/ 
&OBST ID='Obstruction', XB=0.13,0.14,0.09,0.1,0.0,0.1, SURF_IDS='burner','INERT','INERT'/ 
&OBST ID='Obstruction', XB=0.13,0.14,0.08,0.09,0.0,0.1, SURF_IDS='burner','INERT','INERT'/ 
&OBST ID='Obstruction', XB=0.13,0.14,0.07,0.08,0.0,0.1, SURF_IDS='burner','INERT','INERT'/ 
&OBST ID='Obstruction', XB=0.13,0.14,0.06,0.07,0.0,0.1, SURF_IDS='burner','INERT','INERT'/ 
&OBST ID='Obstruction', XB=0.14,0.15,0.09,0.1,0.0,0.1, SURF_IDS='burner','INERT','INERT'/ 
&OBST ID='Obstruction', XB=0.14,0.15,0.1,0.11,0.0,0.1, SURF_IDS='burner','INERT','INERT'/ 
&OBST ID='Obstruction', XB=0.13,0.14,0.05,0.06,0.0,0.1, SURF_IDS='burner','INERT','INERT'/ 
&OBST ID='Obstruction', XB=0.14,0.15,0.08,0.09,0.0,0.1, SURF_IDS='burner','INERT','INERT'/ 
&OBST ID='Obstruction', XB=0.14,0.15,0.07,0.08,0.0,0.1, SURF_IDS='burner','INERT','INERT'/ 
&OBST ID='Obstruction', XB=0.13,0.14,0.1,0.11,0.0,0.1, SURF_IDS='burner','INERT','INERT'/ 
&OBST ID='Obstruction', XB=0.13,0.14,-0.09,-0.08,0.0,0.1, SURF_IDS='burner','INERT','INERT'/ 
&OBST ID='Obstruction', XB=0.13,0.14,-0.08,-0.07,0.0,0.1, SURF_IDS='burner','INERT','INERT'/ 
&OBST ID='Obstruction', XB=0.13,0.14,-0.07,-0.06,0.0,0.1, SURF_IDS='burner','INERT','INERT'/ 
&OBST ID='Obstruction', XB=0.13,0.14,-0.06,-0.05,0.0,0.1, SURF_IDS='burner','INERT','INERT'/ 
&OBST ID='Obstruction', XB=0.13,0.14,-0.05,-0.04,0.0,0.1, SURF_IDS='burner','INERT','INERT'/ 
&OBST ID='Obstruction', XB=0.13,0.14,-0.04,-0.03,0.0,0.1, SURF_IDS='burner','INERT','INERT'/ 
&OBST ID='Obstruction', XB=0.13,0.14,-0.03,-0.02,0.0,0.1, SURF_IDS='burner','INERT','INERT'/ 
&OBST ID='Obstruction', XB=0.13,0.14,-0.02,-0.01,0.0,0.1, SURF_IDS='burner','INERT','INERT'/ 
&OBST ID='Obstruction', XB=0.13,0.14,0.04,0.05,0.0,0.1, SURF_IDS='burner','INERT','INERT'/ 
&OBST ID='Obstruction', XB=0.13,0.14,-0.01,0.0,0.0,0.1, SURF_IDS='burner','INERT','INERT'/ 
&OBST ID='Obstruction', XB=0.13,0.14,0.0,0.01,0.0,0.1, SURF_IDS='burner','INERT','INERT'/ 
&OBST ID='Obstruction', XB=0.13,0.14,0.03,0.04,0.0,0.1, SURF_IDS='burner','INERT','INERT'/ 
&OBST ID='Obstruction', XB=0.13,0.14,0.02,0.03,0.0,0.1, SURF_IDS='burner','INERT','INERT'/ 
&OBST ID='Obstruction', XB=0.13,0.14,0.01,0.02,0.0,0.1, SURF_IDS='burner','INERT','INERT'/ 
&OBST ID='Obstruction', XB=0.13,0.14,-0.1,-0.09,0.0,0.1, SURF_IDS='burner','INERT','INERT'/ 
&OBST ID='Obstruction', XB=0.14,0.15,-0.11,-0.1,0.0,0.1, SURF_IDS='burner','INERT','INERT'/ 
&OBST ID='Obstruction', XB=0.13,0.14,0.11,0.12,0.0,0.1, SURF_IDS='burner','INERT','INERT'/ 
&OBST ID='Obstruction', XB=0.13,0.14,-0.11,-0.1,0.0,0.1, SURF_IDS='burner','INERT','INERT'/ 
&OBST ID='Obstruction', XB=0.13,0.14,-0.12,-0.11,0.0,0.1, SURF_IDS='burner','INERT','INERT'/ 
&OBST ID='Obstruction', XB=0.14,0.15,0.01,0.02,0.0,0.1, SURF_IDS='burner','INERT','INERT'/ 
&OBST ID='Obstruction', XB=0.14,0.15,0.02,0.03,0.0,0.1, SURF_IDS='burner','INERT','INERT'/ 
&OBST ID='Obstruction', XB=0.14,0.15,0.03,0.04,0.0,0.1, SURF_IDS='burner','INERT','INERT'/ 
&OBST ID='Obstruction', XB=0.14,0.15,0.04,0.05,0.0,0.1, SURF_IDS='burner','INERT','INERT'/ 
&OBST ID='Obstruction', XB=0.14,0.15,0.05,0.06,0.0,0.1, SURF_IDS='burner','INERT','INERT'/ 
&OBST ID='Obstruction', XB=0.14,0.15,0.06,0.07,0.0,0.1, SURF_IDS='burner','INERT','INERT'/ 
&OBST ID='Obstruction', XB=0.13,0.14,0.12,0.13,0.0,0.1, SURF_IDS='burner','INERT','INERT'/ 
&OBST ID='Obstruction', XB=0.14,0.15,0.11,0.12,0.0,0.1, SURF_IDS='burner','INERT','INERT'/ 
&OBST ID='Obstruction', XB=0.13,0.14,0.13,0.14,0.0,0.1, SURF_IDS='burner','INERT','INERT'/ 
&OBST ID='Obstruction', XB=0.14,0.15,0.12,0.13,0.0,0.1, SURF_IDS='burner','INERT','INERT'/ 
&OBST ID='Obstruction', XB=0.13,0.14,-0.13,-0.12,0.0,0.1, SURF_IDS='burner','INERT','INERT'/ 
&OBST ID='Obstruction', XB=0.14,0.15,-0.12,-0.11,0.0,0.1, SURF_IDS='burner','INERT','INERT'/ 
&OBST ID='Obstruction', XB=0.13,0.14,-0.14,-0.13,0.0,0.1, SURF_IDS='burner','INERT','INERT'/ 
&OBST ID='Obstruction', XB=0.14,0.15,-0.13,-0.12,0.0,0.1, SURF_IDS='burner','INERT','INERT'/ 
&OBST ID='Obstruction', XB=0.12,0.13,-0.1,-0.09,0.0,0.1, SURF_IDS='burner','INERT','INERT'/ 
&OBST ID='Obstruction', XB=0.12,0.13,-0.09,-0.08,0.0,0.1, SURF_IDS='burner','INERT','INERT'/ 
&OBST ID='Obstruction', XB=0.12,0.13,-0.08,-0.07,0.0,0.1, SURF_IDS='burner','INERT','INERT'/ 
&OBST ID='Obstruction', XB=0.12,0.13,-0.07,-0.06,0.0,0.1, SURF_IDS='burner','INERT','INERT'/ 
&OBST ID='Obstruction', XB=0.12,0.13,-0.06,-0.05,0.0,0.1, SURF_IDS='burner','INERT','INERT'/ 
&OBST ID='Obstruction', XB=0.12,0.13,-0.05,-0.04,0.0,0.1, SURF_IDS='burner','INERT','INERT'/ 
&OBST ID='Obstruction', XB=0.12,0.13,-0.04,-0.03,0.0,0.1, SURF_IDS='burner','INERT','INERT'/ 
&OBST ID='Obstruction', XB=0.12,0.13,-0.11,-0.1,0.0,0.1, SURF_IDS='burner','INERT','INERT'/ 
&OBST ID='Obstruction', XB=0.12,0.13,-0.12,-0.11,0.0,0.1, SURF_IDS='burner','INERT','INERT'/ 
&OBST ID='Obstruction', XB=0.12,0.13,0.01,0.02,0.0,0.1, SURF_IDS='burner','INERT','INERT'/ 
&OBST ID='Obstruction', XB=0.12,0.13,0.02,0.03,0.0,0.1, SURF_IDS='burner','INERT','INERT'/ 
&OBST ID='Obstruction', XB=0.12,0.13,0.03,0.04,0.0,0.1, SURF_IDS='burner','INERT','INERT'/ 
&OBST ID='Obstruction', XB=0.11,0.12,0.05,0.06,0.0,0.1, SURF_IDS='burner','INERT','INERT'/ 
&OBST ID='Obstruction', XB=0.11,0.12,0.1,0.11,0.0,0.1, SURF_IDS='burner','INERT','INERT'/ 
&OBST ID='Obstruction', XB=0.11,0.12,0.04,0.05,0.0,0.1, SURF_IDS='burner','INERT','INERT'/ 
&OBST ID='Obstruction', XB=0.11,0.12,0.03,0.04,0.0,0.1, SURF_IDS='burner','INERT','INERT'/ 
&OBST ID='Obstruction', XB=0.11,0.12,0.02,0.03,0.0,0.1, SURF_IDS='burner','INERT','INERT'/ 
&OBST ID='Obstruction', XB=0.11,0.12,0.01,0.02,0.0,0.1, SURF_IDS='burner','INERT','INERT'/ 
&OBST ID='Obstruction', XB=0.12,0.13,0.0,0.01,0.0,0.1, SURF_IDS='burner','INERT','INERT'/ 
&OBST ID='Obstruction', XB=0.12,0.13,-0.01,0.0,0.0,0.1, SURF_IDS='burner','INERT','INERT'/ 
&OBST ID='Obstruction', XB=0.12,0.13,-0.02,-0.01,0.0,0.1, SURF_IDS='burner','INERT','INERT'/ 
&OBST ID='Obstruction', XB=0.12,0.13,0.09,0.1,0.0,0.1, SURF_IDS='burner','INERT','INERT'/ 
&OBST ID='Obstruction', XB=0.12,0.13,0.1,0.11,0.0,0.1, SURF_IDS='burner','INERT','INERT'/ 
&OBST ID='Obstruction', XB=0.12,0.13,0.08,0.09,0.0,0.1, SURF_IDS='burner','INERT','INERT'/ 
&OBST ID='Obstruction', XB=0.12,0.13,0.07,0.08,0.0,0.1, SURF_IDS='burner','INERT','INERT'/ 
&OBST ID='Obstruction', XB=0.12,0.13,0.04,0.05,0.0,0.1, SURF_IDS='burner','INERT','INERT'/ 
&OBST ID='Obstruction', XB=0.12,0.13,0.05,0.06,0.0,0.1, SURF_IDS='burner','INERT','INERT'/ 
&OBST ID='Obstruction', XB=0.12,0.13,0.06,0.07,0.0,0.1, SURF_IDS='burner','INERT','INERT'/ 
&OBST ID='Obstruction', XB=0.12,0.13,0.11,0.12,0.0,0.1, SURF_IDS='burner','INERT','INERT'/ 
&OBST ID='Obstruction', XB=0.12,0.13,0.12,0.13,0.0,0.1, SURF_IDS='burner','INERT','INERT'/ 
&OBST ID='Obstruction', XB=0.11,0.12,0.12,0.13,0.0,0.1, SURF_IDS='burner','INERT','INERT'/ 
&OBST ID='Obstruction', XB=0.11,0.12,0.13,0.14,0.0,0.1, SURF_IDS='burner','INERT','INERT'/ 
&OBST ID='Obstruction', XB=0.11,0.12,0.11,0.12,0.0,0.1, SURF_IDS='burner','INERT','INERT'/ 
&OBST ID='Obstruction', XB=0.11,0.12,0.09,0.1,0.0,0.1, SURF_IDS='burner','INERT','INERT'/ 
&OBST ID='Obstruction', XB=0.11,0.12,0.08,0.09,0.0,0.1, SURF_IDS='burner','INERT','INERT'/ 
&OBST ID='Obstruction', XB=0.11,0.12,0.07,0.08,0.0,0.1, SURF_IDS='burner','INERT','INERT'/ 
&OBST ID='Obstruction', XB=0.11,0.12,0.06,0.07,0.0,0.1, SURF_IDS='burner','INERT','INERT'/ 
&OBST ID='Obstruction', XB=0.12,0.13,-0.03,-0.02,0.0,0.1, SURF_IDS='burner','INERT','INERT'/ 
&OBST ID='Obstruction', XB=0.11,0.12,-0.09,-0.08,0.0,0.1, SURF_IDS='burner','INERT','INERT'/ 
&OBST ID='Obstruction', XB=0.11,0.12,-0.08,-0.07,0.0,0.1, SURF_IDS='burner','INERT','INERT'/ 
&OBST ID='Obstruction', XB=0.11,0.12,-0.07,-0.06,0.0,0.1, SURF_IDS='burner','INERT','INERT'/ 
&OBST ID='Obstruction', XB=0.11,0.12,-0.06,-0.05,0.0,0.1, SURF_IDS='burner','INERT','INERT'/ 
&OBST ID='Obstruction', XB=0.11,0.12,-0.05,-0.04,0.0,0.1, SURF_IDS='burner','INERT','INERT'/ 
&OBST ID='Obstruction', XB=0.11,0.12,-0.04,-0.03,0.0,0.1, SURF_IDS='burner','INERT','INERT'/ 
&OBST ID='Obstruction', XB=0.11,0.12,-0.03,-0.02,0.0,0.1, SURF_IDS='burner','INERT','INERT'/ 
&OBST ID='Obstruction', XB=0.11,0.12,-0.02,-0.01,0.0,0.1, SURF_IDS='burner','INERT','INERT'/ 
&OBST ID='Obstruction', XB=0.11,0.12,-0.13,-0.12,0.0,0.1, SURF_IDS='burner','INERT','INERT'/ 
&OBST ID='Obstruction', XB=0.11,0.12,-0.14,-0.13,0.0,0.1, SURF_IDS='burner','INERT','INERT'/ 
&OBST ID='Obstruction', XB=0.12,0.13,-0.13,-0.12,0.0,0.1, SURF_IDS='burner','INERT','INERT'/ 
&OBST ID='Obstruction', XB=0.11,0.12,-0.12,-0.11,0.0,0.1, SURF_IDS='burner','INERT','INERT'/ 
&OBST ID='Obstruction', XB=0.11,0.12,-0.11,-0.1,0.0,0.1, SURF_IDS='burner','INERT','INERT'/ 
&OBST ID='Obstruction', XB=0.11,0.12,-0.1,-0.09,0.0,0.1, SURF_IDS='burner','INERT','INERT'/ 
&OBST ID='Obstruction', XB=0.11,0.12,-0.01,0.0,0.0,0.1, SURF_IDS='burner','INERT','INERT'/ 
&OBST ID='Obstruction', XB=0.11,0.12,0.0,0.01,0.0,0.1, SURF_IDS='burner','INERT','INERT'/ 
&OBST ID='Obstruction', XB=0.11,0.12,0.14,0.15,0.0,0.1, SURF_IDS='burner','INERT','INERT'/ 
&OBST ID='Obstruction', XB=0.12,0.13,0.13,0.14,0.0,0.1, SURF_IDS='burner','INERT','INERT'/ 
&OBST ID='Obstruction', XB=0.11,0.12,0.15,0.16,0.0,0.1, SURF_IDS='burner','INERT','INERT'/ 
&OBST ID='Obstruction', XB=0.12,0.13,0.14,0.15,0.0,0.1, SURF_IDS='burner','INERT','INERT'/ 
&OBST ID='Obstruction', XB=0.11,0.12,-0.15,-0.14,0.0,0.1, SURF_IDS='burner','INERT','INERT'/ 
&OBST ID='Obstruction', XB=0.12,0.13,-0.14,-0.13,0.0,0.1, SURF_IDS='burner','INERT','INERT'/ 
&OBST ID='Obstruction', XB=0.11,0.12,-0.16,-0.15,0.0,0.1, SURF_IDS='burner','INERT','INERT'/ 
&OBST ID='Obstruction', XB=0.12,0.13,-0.15,-0.14,0.0,0.1, SURF_IDS='burner','INERT','INERT'/ 
&OBST ID='Obstruction', XB=0.1,0.11,-0.12,-0.11,0.0,0.1, SURF_IDS='burner','INERT','INERT'/ 
&OBST ID='Obstruction', XB=0.1,0.11,-0.11,-0.1,0.0,0.1, SURF_IDS='burner','INERT','INERT'/ 
&OBST ID='Obstruction', XB=0.1,0.11,-0.1,-0.09,0.0,0.1, SURF_IDS='burner','INERT','INERT'/ 
&OBST ID='Obstruction', XB=0.1,0.11,-0.09,-0.08,0.0,0.1, SURF_IDS='burner','INERT','INERT'/ 
&OBST ID='Obstruction', XB=0.1,0.11,-0.08,-0.07,0.0,0.1, SURF_IDS='burner','INERT','INERT'/ 
&OBST ID='Obstruction', XB=0.1,0.11,-0.07,-0.06,0.0,0.1, SURF_IDS='burner','INERT','INERT'/ 
&OBST ID='Obstruction', XB=0.1,0.11,-0.06,-0.05,0.0,0.1, SURF_IDS='burner','INERT','INERT'/ 
&OBST ID='Obstruction', XB=0.1,0.11,-0.05,-0.04,0.0,0.1, SURF_IDS='burner','INERT','INERT'/ 
&OBST ID='Obstruction', XB=0.1,0.11,-0.04,-0.03,0.0,0.1, SURF_IDS='burner','INERT','INERT'/ 
&OBST ID='Obstruction', XB=0.1,0.11,0.01,0.02,0.0,0.1, SURF_IDS='burner','INERT','INERT'/ 
&OBST ID='Obstruction', XB=0.1,0.11,0.02,0.03,0.0,0.1, SURF_IDS='burner','INERT','INERT'/ 
&OBST ID='Obstruction', XB=0.1,0.11,0.0,0.01,0.0,0.1, SURF_IDS='burner','INERT','INERT'/ 
&OBST ID='Obstruction', XB=0.1,0.11,-0.01,0.0,0.0,0.1, SURF_IDS='burner','INERT','INERT'/ 
&OBST ID='Obstruction', XB=0.1,0.11,-0.02,-0.01,0.0,0.1, SURF_IDS='burner','INERT','INERT'/ 
&OBST ID='Obstruction', XB=0.1,0.11,-0.03,-0.02,0.0,0.1, SURF_IDS='burner','INERT','INERT'/ 
&OBST ID='Obstruction', XB=0.1,0.11,0.12,0.13,0.0,0.1, SURF_IDS='burner','INERT','INERT'/ 
&OBST ID='Obstruction', XB=0.09,0.1,0.12,0.13,0.0,0.1, SURF_IDS='burner','INERT','INERT'/ 
&OBST ID='Obstruction', XB=0.09,0.1,0.13,0.14,0.0,0.1, SURF_IDS='burner','INERT','INERT'/ 
&OBST ID='Obstruction', XB=0.1,0.11,0.04,0.05,0.0,0.1, SURF_IDS='burner','INERT','INERT'/ 
&OBST ID='Obstruction', XB=0.1,0.11,0.03,0.04,0.0,0.1, SURF_IDS='burner','INERT','INERT'/ 
&OBST ID='Obstruction', XB=0.1,0.11,0.13,0.14,0.0,0.1, SURF_IDS='burner','INERT','INERT'/ 
&OBST ID='Obstruction', XB=0.1,0.11,0.11,0.12,0.0,0.1, SURF_IDS='burner','INERT','INERT'/ 
&OBST ID='Obstruction', XB=0.1,0.11,0.1,0.11,0.0,0.1, SURF_IDS='burner','INERT','INERT'/ 
&OBST ID='Obstruction', XB=0.1,0.11,0.09,0.1,0.0,0.1, SURF_IDS='burner','INERT','INERT'/ 
&OBST ID='Obstruction', XB=0.1,0.11,0.08,0.09,0.0,0.1, SURF_IDS='burner','INERT','INERT'/ 
&OBST ID='Obstruction', XB=0.1,0.11,0.07,0.08,0.0,0.1, SURF_IDS='burner','INERT','INERT'/ 
&OBST ID='Obstruction', XB=0.09,0.1,0.1,0.11,0.0,0.1, SURF_IDS='burner','INERT','INERT'/ 
&OBST ID='Obstruction', XB=0.1,0.11,0.06,0.07,0.0,0.1, SURF_IDS='burner','INERT','INERT'/ 
&OBST ID='Obstruction', XB=0.1,0.11,0.05,0.06,0.0,0.1, SURF_IDS='burner','INERT','INERT'/ 
&OBST ID='Obstruction', XB=0.09,0.1,0.11,0.12,0.0,0.1, SURF_IDS='burner','INERT','INERT'/ 
&OBST ID='Obstruction', XB=0.09,0.1,0.09,0.1,0.0,0.1, SURF_IDS='burner','INERT','INERT'/ 
&OBST ID='Obstruction', XB=0.09,0.1,0.08,0.09,0.0,0.1, SURF_IDS='burner','INERT','INERT'/ 
&OBST ID='Obstruction', XB=0.09,0.1,0.07,0.08,0.0,0.1, SURF_IDS='burner','INERT','INERT'/ 
&OBST ID='Obstruction', XB=0.09,0.1,0.06,0.07,0.0,0.1, SURF_IDS='burner','INERT','INERT'/ 
&OBST ID='Obstruction', XB=0.09,0.1,0.05,0.06,0.0,0.1, SURF_IDS='burner','INERT','INERT'/ 
&OBST ID='Obstruction', XB=0.09,0.1,0.04,0.05,0.0,0.1, SURF_IDS='burner','INERT','INERT'/ 
&OBST ID='Obstruction', XB=0.09,0.1,0.03,0.04,0.0,0.1, SURF_IDS='burner','INERT','INERT'/ 
&OBST ID='Obstruction', XB=0.09,0.1,0.02,0.03,0.0,0.1, SURF_IDS='burner','INERT','INERT'/ 
&OBST ID='Obstruction', XB=0.09,0.1,0.01,0.02,0.0,0.1, SURF_IDS='burner','INERT','INERT'/ 
&OBST ID='Obstruction', XB=0.09,0.1,-0.02,-0.01,0.0,0.1, SURF_IDS='burner','INERT','INERT'/ 
&OBST ID='Obstruction', XB=0.09,0.1,-0.03,-0.02,0.0,0.1, SURF_IDS='burner','INERT','INERT'/ 
&OBST ID='Obstruction', XB=0.09,0.1,-0.04,-0.03,0.0,0.1, SURF_IDS='burner','INERT','INERT'/ 
&OBST ID='Obstruction', XB=0.09,0.1,-0.01,0.0,0.0,0.1, SURF_IDS='burner','INERT','INERT'/ 
&OBST ID='Obstruction', XB=0.09,0.1,0.0,0.01,0.0,0.1, SURF_IDS='burner','INERT','INERT'/ 
&OBST ID='Obstruction', XB=0.09,0.1,-0.05,-0.04,0.0,0.1, SURF_IDS='burner','INERT','INERT'/ 
&OBST ID='Obstruction', XB=0.09,0.1,-0.06,-0.05,0.0,0.1, SURF_IDS='burner','INERT','INERT'/ 
&OBST ID='Obstruction', XB=0.09,0.1,-0.07,-0.06,0.0,0.1, SURF_IDS='burner','INERT','INERT'/ 
&OBST ID='Obstruction', XB=0.09,0.1,-0.08,-0.07,0.0,0.1, SURF_IDS='burner','INERT','INERT'/ 
&OBST ID='Obstruction', XB=0.09,0.1,-0.09,-0.08,0.0,0.1, SURF_IDS='burner','INERT','INERT'/ 
&OBST ID='Obstruction', XB=0.09,0.1,-0.1,-0.09,0.0,0.1, SURF_IDS='burner','INERT','INERT'/ 
&OBST ID='Obstruction', XB=0.09,0.1,-0.11,-0.1,0.0,0.1, SURF_IDS='burner','INERT','INERT'/ 
&OBST ID='Obstruction', XB=0.09,0.1,0.15,0.16,0.0,0.1, SURF_IDS='burner','INERT','INERT'/ 
&OBST ID='Obstruction', XB=0.09,0.1,0.14,0.15,0.0,0.1, SURF_IDS='burner','INERT','INERT'/ 
&OBST ID='Obstruction', XB=0.1,0.11,0.14,0.15,0.0,0.1, SURF_IDS='burner','INERT','INERT'/ 
&OBST ID='Obstruction', XB=0.1,0.11,-0.15,-0.14,0.0,0.1, SURF_IDS='burner','INERT','INERT'/ 
&OBST ID='Obstruction', XB=0.1,0.11,-0.14,-0.13,0.0,0.1, SURF_IDS='burner','INERT','INERT'/ 
&OBST ID='Obstruction', XB=0.1,0.11,-0.13,-0.12,0.0,0.1, SURF_IDS='burner','INERT','INERT'/ 
&OBST ID='Obstruction', XB=0.09,0.1,-0.15,-0.14,0.0,0.1, SURF_IDS='burner','INERT','INERT'/ 
&OBST ID='Obstruction', XB=0.09,0.1,-0.16,-0.15,0.0,0.1, SURF_IDS='burner','INERT','INERT'/ 
&OBST ID='Obstruction', XB=0.09,0.1,-0.14,-0.13,0.0,0.1, SURF_IDS='burner','INERT','INERT'/ 
&OBST ID='Obstruction', XB=0.09,0.1,-0.13,-0.12,0.0,0.1, SURF_IDS='burner','INERT','INERT'/ 
&OBST ID='Obstruction', XB=0.09,0.1,-0.12,-0.11,0.0,0.1, SURF_IDS='burner','INERT','INERT'/ 
&OBST ID='Obstruction', XB=0.09,0.1,0.16,0.17,0.0,0.1, SURF_IDS='burner','INERT','INERT'/ 
&OBST ID='Obstruction', XB=0.1,0.11,0.15,0.16,0.0,0.1, SURF_IDS='burner','INERT','INERT'/ 
&OBST ID='Obstruction', XB=0.09,0.1,0.17,0.18,0.0,0.1, SURF_IDS='burner','INERT','INERT'/ 
&OBST ID='Obstruction', XB=0.1,0.11,0.16,0.17,0.0,0.1, SURF_IDS='burner','INERT','INERT'/ 
&OBST ID='Obstruction', XB=0.09,0.1,-0.17,-0.16,0.0,0.1, SURF_IDS='burner','INERT','INERT'/ 
&OBST ID='Obstruction', XB=0.1,0.11,-0.16,-0.15,0.0,0.1, SURF_IDS='burner','INERT','INERT'/ 
&OBST ID='Obstruction', XB=0.09,0.1,-0.18,-0.17,0.0,0.1, SURF_IDS='burner','INERT','INERT'/ 
&OBST ID='Obstruction', XB=0.1,0.11,-0.17,-0.16,0.0,0.1, SURF_IDS='burner','INERT','INERT'/ 
&OBST ID='Obstruction', XB=0.08,0.09,0.03,0.04,0.0,0.1, SURF_IDS='burner','INERT','INERT'/ 
&OBST ID='Obstruction', XB=0.08,0.09,0.04,0.05,0.0,0.1, SURF_IDS='burner','INERT','INERT'/ 
&OBST ID='Obstruction', XB=0.08,0.09,0.05,0.06,0.0,0.1, SURF_IDS='burner','INERT','INERT'/ 
&OBST ID='Obstruction', XB=0.08,0.09,0.06,0.07,0.0,0.1, SURF_IDS='burner','INERT','INERT'/ 
&OBST ID='Obstruction', XB=0.08,0.09,0.07,0.08,0.0,0.1, SURF_IDS='burner','INERT','INERT'/ 
&OBST ID='Obstruction', XB=0.08,0.09,0.08,0.09,0.0,0.1, SURF_IDS='burner','INERT','INERT'/ 
&OBST ID='Obstruction', XB=0.08,0.09,0.09,0.1,0.0,0.1, SURF_IDS='burner','INERT','INERT'/ 
&OBST ID='Obstruction', XB=0.08,0.09,-0.04,-0.03,0.0,0.1, SURF_IDS='burner','INERT','INERT'/ 
&OBST ID='Obstruction', XB=0.08,0.09,-0.03,-0.02,0.0,0.1, SURF_IDS='burner','INERT','INERT'/ 
&OBST ID='Obstruction', XB=0.08,0.09,-0.02,-0.01,0.0,0.1, SURF_IDS='burner','INERT','INERT'/ 
&OBST ID='Obstruction', XB=0.08,0.09,-0.01,0.0,0.0,0.1, SURF_IDS='burner','INERT','INERT'/ 
&OBST ID='Obstruction', XB=0.08,0.09,0.0,0.01,0.0,0.1, SURF_IDS='burner','INERT','INERT'/ 
&OBST ID='Obstruction', XB=0.08,0.09,0.01,0.02,0.0,0.1, SURF_IDS='burner','INERT','INERT'/ 
&OBST ID='Obstruction', XB=0.08,0.09,0.02,0.03,0.0,0.1, SURF_IDS='burner','INERT','INERT'/ 
&OBST ID='Obstruction', XB=0.08,0.09,-0.11,-0.1,0.0,0.1, SURF_IDS='burner','INERT','INERT'/ 
&OBST ID='Obstruction', XB=0.08,0.09,-0.1,-0.09,0.0,0.1, SURF_IDS='burner','INERT','INERT'/ 
&OBST ID='Obstruction', XB=0.08,0.09,-0.09,-0.08,0.0,0.1, SURF_IDS='burner','INERT','INERT'/ 
&OBST ID='Obstruction', XB=0.08,0.09,-0.08,-0.07,0.0,0.1, SURF_IDS='burner','INERT','INERT'/ 
&OBST ID='Obstruction', XB=0.08,0.09,-0.07,-0.06,0.0,0.1, SURF_IDS='burner','INERT','INERT'/ 
&OBST ID='Obstruction', XB=0.08,0.09,-0.06,-0.05,0.0,0.1, SURF_IDS='burner','INERT','INERT'/ 
&OBST ID='Obstruction', XB=0.08,0.09,-0.05,-0.04,0.0,0.1, SURF_IDS='burner','INERT','INERT'/ 
&OBST ID='Obstruction', XB=0.08,0.09,-0.12,-0.11,0.0,0.1, SURF_IDS='burner','INERT','INERT'/ 
&OBST ID='Obstruction', XB=0.08,0.09,-0.17,-0.16,0.0,0.1, SURF_IDS='burner','INERT','INERT'/ 
&OBST ID='Obstruction', XB=0.08,0.09,-0.18,-0.17,0.0,0.1, SURF_IDS='burner','INERT','INERT'/ 